Version 4
SHEET 1 1592 680
WIRE 864 -304 688 -304
WIRE 1232 -304 864 -304
WIRE 80 -240 -96 -240
WIRE 272 -240 160 -240
WIRE 688 -240 688 -304
WIRE 864 -224 784 -224
WIRE 1152 -224 864 -224
WIRE 784 -208 784 -224
WIRE 176 -160 -448 -160
WIRE 480 -160 176 -160
WIRE 1232 -160 1232 -304
WIRE 688 -144 688 -160
WIRE 688 -144 640 -144
WIRE 1200 -144 1168 -144
WIRE 640 -128 640 -144
WIRE 688 -128 688 -144
WIRE 1296 -128 1264 -128
WIRE 1488 -128 1296 -128
WIRE 1152 -112 1152 -224
WIRE 1152 -112 1072 -112
WIRE 1200 -112 1152 -112
WIRE 1168 -96 1168 -144
WIRE 1168 -96 1104 -96
WIRE -448 -80 -448 -160
WIRE -192 -64 -304 -64
WIRE -96 -64 -96 -240
WIRE -96 -64 -112 -64
WIRE -80 -64 -96 -64
WIRE 0 -64 -16 -64
WIRE 128 -64 0 -64
WIRE 176 -64 176 -160
WIRE -304 -32 -304 -64
WIRE 272 -32 272 -240
WIRE 272 -32 240 -32
WIRE 432 -32 272 -32
WIRE 480 -32 480 -160
WIRE -448 0 -496 0
WIRE 128 0 80 0
WIRE 592 0 544 0
WIRE 864 0 592 0
WIRE 1072 0 1072 -112
WIRE 1072 0 928 0
WIRE 1104 16 1104 -96
WIRE 1296 16 1296 -128
WIRE 1296 16 1184 16
WIRE -96 32 -96 -64
WIRE 0 32 0 -64
WIRE 432 32 368 32
WIRE 176 80 176 0
WIRE 480 80 480 32
WIRE 480 80 176 80
WIRE 688 80 688 -48
WIRE 1232 80 1232 -96
WIRE 1232 80 688 80
WIRE 1104 112 1104 16
WIRE 176 128 176 80
WIRE 176 128 144 128
WIRE 368 128 368 32
WIRE 416 128 368 128
WIRE 592 128 592 0
WIRE 592 128 496 128
WIRE -96 192 -96 96
WIRE -48 192 -96 192
WIRE 80 192 80 0
WIRE 80 192 32 192
WIRE 176 192 80 192
WIRE 272 192 272 -32
WIRE 272 192 256 192
WIRE -96 240 -96 192
WIRE -448 320 -448 80
WIRE 144 320 144 128
WIRE 144 320 -448 320
FLAG -96 240 0
FLAG -304 48 0
FLAG 0 112 0
FLAG -496 0 0
FLAG 368 208 0
FLAG 640 -128 0
FLAG 864 -144 0
FLAG 784 -144 0
FLAG 1104 256 0
FLAG 1488 -128 Vout
SYMBOL res -96 -80 R90
WINDOW 0 0 56 VBottom 2
WINDOW 3 32 56 VTop 2
SYMATTR InstName R1
SYMATTR Value 3.4k
SYMBOL res 48 176 R90
WINDOW 0 0 56 VBottom 2
WINDOW 3 32 56 VTop 2
SYMATTR InstName R2
SYMATTR Value 274
SYMBOL res 272 176 R90
WINDOW 0 0 56 VBottom 2
WINDOW 3 32 56 VTop 2
SYMATTR InstName R3
SYMATTR Value 2.49k
SYMBOL res 176 -256 R90
WINDOW 0 0 56 VBottom 2
WINDOW 3 32 56 VTop 2
SYMATTR InstName R4
SYMATTR Value 499k
SYMBOL res 16 128 R180
WINDOW 0 36 76 Left 2
WINDOW 3 36 40 Left 2
SYMATTR InstName R5
SYMATTR Value 76.8k
SYMBOL cap -16 -80 R90
WINDOW 0 0 32 VBottom 2
WINDOW 3 32 32 VTop 2
SYMATTR InstName C1
SYMATTR Value 100n
SYMBOL cap -80 96 R180
WINDOW 0 24 56 Left 2
WINDOW 3 24 8 Left 2
SYMATTR InstName C2
SYMATTR Value 100n
SYMBOL voltage -304 -48 R0
WINDOW 123 24 124 Left 2
WINDOW 39 0 0 Left 0
SYMATTR Value2 AC 1
SYMATTR InstName Vin1
SYMATTR Value SINE()
SYMBOL voltage -448 -96 R0
WINDOW 3 33 72 Left 2
WINDOW 123 0 0 Left 0
WINDOW 39 0 0 Left 0
SYMATTR Value 3.3
SYMATTR InstName V1
SYMBOL voltage -448 -16 R0
WINDOW 123 0 0 Left 0
WINDOW 39 0 0 Left 0
SYMATTR InstName V2
SYMATTR Value 3.3
SYMBOL TLC272 160 -32 R0
SYMATTR InstName U1
SYMATTR SpiceModel TLC272
SYMBOL TLC272 464 0 R0
SYMATTR InstName U2
SYMATTR SpiceModel TLC272
SYMBOL res 352 112 R0
SYMATTR InstName R6
SYMATTR Value 1k
SYMBOL res 512 112 R90
WINDOW 0 0 56 VBottom 2
WINDOW 3 32 56 VTop 2
SYMATTR InstName R7
SYMATTR Value 20k
SYMBOL voltage 688 -256 R0
WINDOW 123 0 0 Left 0
WINDOW 39 0 0 Left 0
SYMATTR InstName V3
SYMATTR Value 3.3
SYMBOL voltage 688 -144 R0
WINDOW 123 0 0 Left 0
WINDOW 39 0 0 Left 0
SYMATTR InstName V4
SYMATTR Value 3.3
SYMBOL res 848 -320 R0
SYMATTR InstName R8
SYMATTR Value 100k
SYMBOL res 848 -240 R0
SYMATTR InstName R9
SYMATTR Value 100k
SYMBOL res 1200 0 R90
WINDOW 0 0 56 VBottom 2
WINDOW 3 32 56 VTop 2
SYMATTR InstName R10
SYMATTR Value 40k
SYMBOL OpAmps\\UniversalOpAmp 1232 -128 R0
SYMATTR InstName U3
SYMBOL cap 928 -16 R90
WINDOW 0 0 32 VBottom 2
WINDOW 3 32 32 VTop 2
SYMATTR InstName C3
SYMATTR Value 0.1µ
SYMBOL res 1088 96 R0
SYMATTR InstName R11
SYMATTR Value 20k
SYMBOL cap 1088 192 R0
SYMATTR InstName C4
SYMATTR Value 0.3µ
SYMBOL cap 768 -208 R0
SYMATTR InstName C5
SYMATTR Value 0.6µ
TEXT -368 112 Left 2 !.ac dec 1000 1 100000
TEXT -448 480 Left 2 ;CUTOFF FREQUENCIES 20-492. GAIN = 20dB (89) GAIN Vout2 = 40dB (100). PHASE MARGIN = +65 DEGREES.
TEXT 664 368 Left 2 ;BIPOLAR +/- 3.3V TO SINGLE-ENDED 0-3.3V
TEXT 288 288 Left 2 ;NON-INVERTING AMP
TEXT -40 376 Left 2 ;BANDPASS FILTER
